13
benzox-bp86.log
C1        -1.44550        0.72540        0.13010
C2        -0.32280        1.44090       -0.19330
C3         0.98050        0.76950       -0.31390
C4         0.98050       -0.76950       -0.31390
C5        -0.32280       -1.44090       -0.19330
C6        -1.44550       -0.72540        0.13010
H1        -2.40580        1.24760        0.27220
H2        -0.38080        2.52230       -0.39740
H3        -0.38080       -2.52230       -0.39740
H4        -2.40580       -1.24760        0.27220
O          1.42980        0.00000        0.80920
H5         1.79400       -1.29760       -0.84890
H6         1.79400        1.29760       -0.84890
