6
methanol.pdb
C          1.05500       -0.04800       -0.07000
O          2.47100       -0.05800       -0.08100
H          0.69500        0.95000       -0.33200
H          0.69500       -0.32800        0.92300
H          0.68900       -0.76900       -0.80500
H          2.76600        0.59100        0.58000
