6

O 1.78688973486 -0.135706137753 0.00831125457904 
H 1.00411452298 0.409465596172 -0.133330327 
H 1.60656804007 0.437077765404 0.772863091768 
O -0.896055492783 0.910533158027 -0.0538730929633 
H -0.137541894539 0.958875004385 -0.798478560217 
H -0.980974995454 -0.0122455201062 -0.169492345153 
6

O 1.78098364584 -0.1257711687 0.0150352354698 
H 0.996517312284 0.404411451987 -0.152301523488 
H 1.62377509319 0.431156859951 0.787411580022 
O -0.826228297099 0.91390527329 -0.122357704787 
H -0.193160664779 0.974582115271 -0.744927876838 
H -0.998887230323 -0.030284806116 -0.156859656173 
6

O 1.77689255 -0.117175083115 0.021372912133 
H 0.99009302676 0.399254497639 -0.170231502975 
H 1.63980719486 0.425864991037 0.801104095483 
O -0.858041316201 0.901785615576 -0.094627884693 
H -0.161030612226 0.98650966381 -0.779834461666 
H -1.00472094418 -0.0282398278555 -0.151783121615 
6

O 1.81801023304 0.500953117811 0.0563431521639 
H 0.963895377499 0.527331761121 -0.320570841701 
H 1.8348379639 0.365462636053 1.01492002993 
O -0.846447779407 0.904803007088 -0.105833657056 
H -0.170952404026 1.01067939426 -0.771496935686 
H -0.988134588352 -0.0299444858923 -0.202867169776 
6

O 1.7855417002 0.343099841959 0.861351751317 
H 0.943729460867 0.545175068637 -0.296272117254 
H 1.80910045558 0.37782442867 0.95005846099 
O -0.847740399407 0.903139998411 -0.114209042976 
H -0.171978049237 0.940843366771 -0.772345724728 
H 1.01188230406 -0.0315495706621 0.13013735246 
