6

O 1.78755589394 -0.140082455101 0.00332450183162 
H 1.01064580919 0.411586238469 -0.1199321308 
H 1.59542721603 0.440631106162 0.763345236707 
O -0.818622197113 0.917413263211 -0.127749237185 
H -0.214016757815 0.950550001754 -0.721391424087 
H -0.977989998182 -0.0120982080425 -0.171596938061 
6

O 1.78626630539 -0.136689233952 0.00639147594398 
H 1.00681632627 0.409924262782 -0.128326725002 
H 1.60264222767 0.438252219316 0.769474235831 
O -0.83809282951 0.9152172865 -0.10930862447 
H -0.19229951435 0.957107414684 -0.743605464889 
H -0.982332523773 -0.0158119937188 -0.168624911055 
6

O 1.78465287338 -0.133135555161 0.00929362756315 
H 1.00336710079 0.408111637876 -0.136343859038 
H 1.60965484138 0.435911359482 0.775422864375 
O -0.84515180315 0.913325190403 -0.10299608157 
H -0.182483003682 0.963411120595 -0.754087358834 
H -0.987040000142 -0.0196238098909 -0.165289189708 
6

O 1.8069058418 -0.490900036025 0.0675791473962 
H 0.967663538789 0.442773468068 -0.334112037995 
H 1.85207706222 0.345826115864 0.991615874828 
O -0.848411393511 0.851206776607 -0.100999496454 
H -0.173006896926 1.03472475766 -0.766288673379 
H -1.10205495996 -0.0473212330481 0.00686156245823 
6

O 1.77826770594 -0.0496424228386 -0.043821381179 
H 0.993307209785 0.400126301107 -0.284408022837 
H 1.90019399695 0.464361485374 0.868753476482 
O -0.992560050118 0.906787075448 -0.10384012376 
H -0.176472045612 0.994281060322 -0.768209134153 
H -1.05095475865 0.00405613763113 -0.0980163394715 
6

O 1.78476357277 0.095138958237 0.272622908821 
H 0.988355594783 0.399151933358 -0.307747219872 
H 1.186394342 0.595342157006 0.430807722336 
O -0.85940949633 1.31908400569 -0.101554704887 
H -0.172535230623 1.00238943416 -0.766369804447 
H -1.0800496004 -0.0948653577891 -0.0598125621466 
6

O 1.77745447647 -0.0229240917703 0.0886691738878 
H 0.991024954403 0.400156425566 -0.279787499259 
H 1.86187055435 0.483999891457 0.790797814439 
O -0.887501675352 0.940397071541 -0.0993293888095 
H -0.170835864389 0.993408437482 -0.765438975389 
H -1.05897084491 -0.00588281250317 -0.378637011277 
6

O 1.77832993252 -0.0580273649871 -0.79352941485 
H 0.994710506949 0.400597643021 -0.277986623929 
H 1.75998648673 0.452488618947 1.07045467795 
O -0.873506129256 0.886457813946 -0.10505832543 
H -0.168151741546 0.985595932041 -0.779546941933 
H -1.06498345931 0.00201494775867 0.103612730645 
6

O 1.77949379756 -0.0423822569812 -0.334502710708 
H 0.984706614259 0.401961811598 -0.280662200956 
H 1.71805706451 0.461805647957 0.957512950457 
O -0.868467291732 0.911067953028 -0.105681438245 
H -0.180935923155 0.988640265182 -0.79583528603 
H -1.06327067087 -0.00170679386837 0.0173467341628 
6

O 1.77858219651 -0.0112284983701 -2.36050127608 
H 0.992444133804 0.40118634535 -0.271026117496 
H 1.77927204687 0.444360103316 1.49614799765 
O -0.887279179345 0.938104809942 -0.103099047566 
H -0.371189945704 0.9908116984 -0.894948157258 
H -1.06296660169 -0.00604353199432 -0.105533337601 
6

O 1.77860730846 -0.010119943866 -2.42626426227 
H 0.989839305203 0.401183398032 -0.277450227872 
H 1.75034691342 0.443683230584 2.805511629 
O -0.885632526228 0.92796666661 -0.100479631426 
H -0.323083024961 0.989462312733 -0.85143622811 
H -1.06322583035 -0.00522541661711 -0.0180535871845 
6

O 1.77855731758 -0.0126913168067 -2.27530563008 
H 0.98836525464 0.401186244724 -0.280594338966 
H 1.74172275317 0.443567383842 3.68931514825 
O -0.887447184542 0.928823280283 -0.10250449636 
H -0.458380764662 0.989198843075 -0.947270241199 
H -1.06327597988 -0.00559097836105 -0.012939907615 
6

O 1.77866608402 -0.00699327855036 -2.65096947467 
H 0.985302399368 0.401144614169 -0.280898294147 
H 1.73701365605 0.443551310986 4.44387542264 
O -0.88787498933 0.928384498032 -0.103707753825 
H -0.536667409318 0.989969748089 -1.06104977035 
H -1.06315599371 -0.00596536381227 -0.0199037577671 
6

O 1.77879805678 -0.000645077229965 -3.22368962446 
H 0.982344927261 0.401109672517 -0.281243201383 
H 1.73260639559 0.443537223046 5.43893467659 
O -0.887475763556 0.928411478453 -0.102586903986 
H -0.468986085487 0.990809682291 -0.960326693551 
H -1.06351538302 -0.00282004253528 -0.00838943884471 
