6

O 1.78987455469 -0.154475633154 0.000342629666697 
H 1.58723656123 0.440272261083 -0.766122045519 
H 1.58731461823 0.449100759487 0.759776611106 
O -1.30096917135 0.0640574648375 -0.00965432001637 
H -0.394287694474 0.0787880400944 0.00170898446696 
H -1.78613471484 -0.778421376767 0.00377760774973 
