6

O 1.40025305741 -0.139073485486 0.000842174393321 
H 1.580753917 0.448659528986 -0.769674476196 
H 1.58281751575 0.458849099258 0.762849624376 
O -1.24794947519 0.0903523180806 -0.00557121799289 
H -0.411501790774 0.0110146952915 0.00186868623724 
H -1.74107986902 -0.77412392657 0.00373188649496 
